*Heading
** Job name: Job-CZM-mesh Model name: Model-3
** Generated by: Abaqus/CAE 2019
*Preprint, echo=NO, model=NO, history=NO, contact=NO
**
** PARTS
**
*Part, name=Part-Right
*Node
      1,         162.,         100.
      2,         162.,          19.
      3,         188.,          19.
      4,         188.,         100.
      5,          30.,         100.
      6,          30.,          19.
      7,         162.,           0.
      8,         188.,           0.
      9,          30.,           0.
     10,           0.,         100.
     11,           0.,          19.
     12,           0.,           0.
     13,         162.,      94.9375
     14,         162.,       89.875
     15,         162.,      84.8125
     16,         162.,        79.75
     17,         162.,      74.6875
     18,         162.,       69.625
     19,         162.,      64.5625
     20,         162.,         59.5
** ... 2229 like lines cut
*Element, type=CPE4
 1,   1,  13, 325,  50
 2,  13,  14, 326, 325
 3,  14,  15, 327, 326
 4,  15,  16, 328, 327
 5,  16,  17, 329, 328
 6,  17,  18, 330, 329
 7,  18,  19, 331, 330
 8,  19,  20, 332, 331
 9,  20,  21, 333, 332
10,  21,  22, 334, 333
11,  22,  23, 335, 334
12,  23,  24, 336, 335
13,  24,  25, 337, 336
14,  25,  26, 338, 337
15,  26,  27, 339, 338
16,  27,   2,  28, 339
17,  50, 325, 340,  49
18, 325, 326, 341, 340
19, 326, 327, 342, 341
20, 327, 328, 343, 342
** ... 2112 like lines cut
*Nset, nset=Set-1, generate
    1,  2249,     1
*Elset, elset=Set-1, generate
    1,  2132,     1
** Section: Section-1
*Solid Section, elset=Set-1, material=Material-1
,
*End Part
**  
**
** ASSEMBLY
**
*Assembly, name=Assembly
**  
*Instance, name=Part-Right-1, part=Part-Right
*End Instance
**  
*End Assembly
** 
** MATERIALS
** 
*Material, name=Material-1
*Elastic
1., 0.3
