*Heading
** Job name: Job-CZM-mesh2 Model name: Model-CZM-mesh2
** Generated by: Abaqus/CAE 2019
*Preprint, echo=NO, model=NO, history=NO, contact=NO
**
** PARTS
**
*Part, name=Part-Right
*Node
      1,         162.,         100.
      2,         162.,          19.
      3,         188.,          19.
      4,         188.,         100.
      5,          20.,         100.
      6,          20.,          19.
      7,         162.,           0.
      8,         188.,           0.
      9,          20.,           0.
     10,           0.,         100.
     11,           0.,          19.
     12,           0.,           0.
     13,         162.,      94.9375
     14,         162.,       89.875
     15,         162.,      84.8125
     16,         162.,        79.75
     17,         162.,      74.6875
     18,         162.,       69.625
     19,         162.,      64.5625
     20,         162.,         59.5
** ... 32768 like lines cut
*Element, type=CPE4
 1,    1,   13, 1210,   50
 2,   13,   14, 1211, 1210
 3,   14,   15, 1212, 1211
 4,   15,   16, 1213, 1212
 5,   16,   17, 1214, 1213
 6,   17,   18, 1215, 1214
 7,   18,   19, 1216, 1215
 8,   19,   20, 1217, 1216
 9,   20,   21, 1218, 1217
10,   21,   22, 1219, 1218
11,   22,   23, 1220, 1219
12,   23,   24, 1221, 1220
13,   24,   25, 1222, 1221
14,   25,   26, 1223, 1222
15,   26,   27, 1224, 1223
16,   27,    2,   28, 1224
17,   50, 1210, 1225,   49
18, 1210, 1211, 1226, 1225
19, 1211, 1212, 1227, 1226
20, 1212, 1213, 1228, 1227
** ... 32206 like lines cut
*Nset, nset=Set-1, generate
     1,  32788,      1
*Elset, elset=Set-1, generate
     1,  32226,      1
** Section: Section-1
*Solid Section, elset=Set-1, material=Material-1
,
*End Part
**  
**
** ASSEMBLY
**
*Assembly, name=Assembly
**  
*Instance, name=Part-Right-1, part=Part-Right
*End Instance
**  
*End Assembly
** 
** MATERIALS
** 
*Material, name=Material-1
*Elastic
1., 0.3
