*Heading
** Job name: Job-CZM-Tri Model name: Model-1-Copy
** Generated by: Abaqus/CAE 2021
*Preprint, echo=NO, model=NO, history=NO, contact=NO
**
** PARTS
**
*Part, name=Part-1
*Node
      1,         162.,          19.
      2,         188.,          19.
      3,         188.,         100.
      4,         162.,         100.
      5,         162.,           0.
      6,         188.,           0.
      7,           0.,          19.
      8,           0.,         100.
      9,           0.,           0.
     10,   164.600006,          19.
     11,   167.199997,          19.
     12,   169.800003,          19.
     13,   172.399994,          19.
     14,         175.,          19.
     15,   177.600006,          19.
     16,   180.199997,          19.
     17,   182.800003,          19.
     18,   185.399994,          19.
     19,         188.,   22.2399998
     20,         188.,   25.4799995
** ... 5654 like lines cut
*Element, type=CPE3
  1,   1,  10, 428
  2, 428,  75,   1
  3,  10,  11, 429
  4, 429, 428,  10
  5,  11,  12, 430
  6, 430, 429,  11
  7,  12,  13, 431
  8, 431, 430,  12
  9,  13,  14, 432
 10, 432, 431,  13
 11,  14,  15, 433
 12, 433, 432,  14
 13,  15,  16, 434
 14, 434, 433,  15
 15,  16,  17, 435
 16, 435, 434,  16
 17,  17,  18, 436
 18, 436, 435,  17
 19,  18,   2,  19
 20,  19, 436,  18
** ... 11016 like lines cut
*Nset, nset=Set-1, generate
    1,  5674,     1
*Elset, elset=Set-1, generate
     1,  11036,      1
** Section: Section-1
*Solid Section, elset=Set-1, material=Material-1
,
*End Part
**  
**
** ASSEMBLY
**
*Assembly, name=Assembly
**  
*Instance, name=Part-1-1, part=Part-1
*End Instance
**  
*Nset, nset=Set-1, instance=Part-1-1
 8,
*Nset, nset=Set-2, instance=Part-1-1
 5,
*Nset, nset=Set-3, instance=Part-1-1
   7,   8, 251, 252, 253, 254, 255, 256, 257, 258, 259, 260, 261, 262, 263, 264
 265, 266, 267, 268, 269, 270, 271, 272, 273, 274, 275, 276, 277, 278, 279, 280
 281, 282, 283, 284, 285, 286, 287, 288, 289, 290, 291, 292, 293, 294, 295, 296
 297, 298, 299, 300, 301, 302, 303, 304, 305, 306, 307, 308, 309, 310, 311, 312
 313, 314, 315, 316, 317, 318, 319, 320, 321, 322, 323, 324, 325, 326, 327, 328
 329,
*Elset, elset=Set-3, instance=Part-1-1
  602,  603,  604,  605,  606,  607,  608,  609,  610,  611, 1147, 1224, 1280, 1425, 1427, 1428
 1431, 1433, 1437, 1439, 1441, 1443, 1447, 1449, 1451, 1453, 1455, 1457, 1459, 1461, 1463, 1465
 1467, 1469, 1471, 1473, 1477, 1479, 1481, 1483, 1485, 1489, 1491, 1493, 1495, 1499, 1501, 1503
 1505, 1507, 1511, 1513, 1515, 1517, 1519, 1523, 1525, 1527, 1529, 1533, 1535, 1537, 1539, 1541
 1545, 1547, 1549, 1551, 1553, 1557, 1559, 1561, 1563, 1567, 1569, 1571, 1573, 1575, 1576, 1776
*Nset, nset=Set-4, instance=Part-1-1
 4,
*End Assembly
** 
** MATERIALS
** 
*Material, name=Material-1
*Elastic
14200., 0.35
** ----------------------------------------------------------------
** 
** STEP: Step-1
** 
*Step, name=Step-1, nlgeom=NO
*Static
1., 1., 1e-05, 1.
** 
** BOUNDARY CONDITIONS
** 
** Name: BC-1 Type: Displacement/Rotation
*Boundary
Set-1, 2, 2, -0.05
** Name: BC-2 Type: Displacement/Rotation
*Boundary
Set-2, 2, 2
** Name: BC-3 Type: Displacement/Rotation
*Boundary
Set-3, 1, 1
** 
** OUTPUT REQUESTS
** 
*Restart, write, frequency=0
** 
** FIELD OUTPUT: F-Output-1
** 
*Output, field, variable=PRESELECT
** 
** HISTORY OUTPUT: H-Output-1
** 
*Output, history, variable=PRESELECT
*End Step
