*Heading
** Job name: Job-CZM-Bulk Model name: Model-bulk
** Generated by: Abaqus/CAE 2021
*Preprint, echo=NO, model=NO, history=NO, contact=NO
**
** PARTS
**
*Part, name=Part-1
*Node
      1,         162.,          19.
      2,         162.,           0.
      3,         188.,           0.
      4,         188.,          19.
      5,         162.,         100.
      6,         188.,         100.
      7,        -162.,          19.
      8,        -188.,          19.
      9,        -188.,           0.
     10,        -162.,           0.
     11,        -162.,         100.
     12,        -188.,         100.
     13,           0.,          19.
     14,           0.,           0.
     15,           0.,         100.
     16,         162.,        14.25
     17,         162.,          9.5
     18,         162.,         4.75
     19,   167.199997,           0.
     20,   172.399994,           0.
** ... 6501 like lines cut
*Element, type=CPS4R
 1,   1,  16, 520,  29
 2,  16,  17, 521, 520
 3,  17,  18, 522, 521
 4,  18,   2,  19, 522
 5,  29, 520, 523,  28
 6, 520, 521, 524, 523
 7, 521, 522, 525, 524
 8, 522,  19,  20, 525
 9,  28, 523, 526,  27
10, 523, 524, 527, 526
11, 524, 525, 528, 527
12, 525,  20,  21, 528
13,  27, 526, 529,  26
14, 526, 527, 530, 529
15, 527, 528, 531, 530
16, 528,  21,  22, 531
17,  26, 529,  25,   4
18, 529, 530,  24,  25
19, 530, 531,  23,  24
20, 531,  22,   3,  23
** ... 6366 like lines cut
*Nset, nset=Set-1, generate
    1,  6521,     1
*Elset, elset=Set-1, generate
    1,  6386,     1
** Section: Section-1
*Solid Section, elset=Set-1, material=Material-1
,
*End Part
**  
**
** ASSEMBLY
**
*Assembly, name=Assembly
**  
*Instance, name=Part-1-1, part=Part-1
*End Instance
**  
*End Assembly
** 
** MATERIALS
** 
*Material, name=Material-1
*Elastic
1., 0.3
